LTspice 24.0.12 for Windows
Circuit: * C:\Users\marim\Desktop\summer 2024 projects\internship 2024\tasks\week2\4x4_grid.asc
Start Time: Thu Dec  5 16:17:25 2024
solver = Normal
Maximum thread count: 8
tnom = 27
temp = 27
method = modified trap
Direct Newton iteration for .op point succeeded.
Total elapsed time: 0.199 seconds.

